/*--------------------------------*- C++ -*----------------------------------*\
| =========                 |                                                 |
| \\      /  F ield         | OpenFOAM: The Open Source CFD Toolbox           |
|  \\    /   O peration     | Version:  plus                                  |
|   \\  /    A nd           | Web:      www.OpenFOAM.com                      |
|    \\/     M anipulation  |                                                 |
\*---------------------------------------------------------------------------*/
FoamFile
{
    version     2.0;
    format      ascii;
    class       dictionary;
    location    "system";
    object      testDictionary;
}
// * * * * * * * * * * * * * * * * * * * * * * * * * * * * * * * * * * * * * //

test1      1;
test2      2.0;
test3      "test3";
test5      test5

subDict{
    test5sub1   1;
    test5sub2   2.0;
    test5sub3  "test5sub3";
    
    subSubDict
    {
        subSub1  1;
        subSub2  2.0;
        subSub3  "subSub3";
    }
}


// ************************************************************************* //
